 Mini_CREATE               SWAT+ Jan 11 2024        MODULAR Rev 2024.61.0                                 
                                        zmx       usle_k       sumfc       sumul      usle_p     usle_ls        esco        epco     cn3_swf       perco     latq_co   tiledrain 
 sname           hydgrp                 (mm)                    (mm)        (mm)                                                                                     0=notile;1=tile;
pgm__gl         C                  1500.0000      0.0000    167.5000    507.5816      1.0000      0.1784      0.9500      1.0000      0.9500      0.5000      0.0100           0
pgm_gl          C                  1500.0000      0.0000    175.0000    502.7844      1.0000      0.1751      0.9500      1.0000      0.9500      0.5000      0.0100           0
ps__pl          A                  1500.0000      0.0000    197.5000    581.6910      1.0000      0.3341      0.9500      1.0000      0.9500      0.9000      0.0100           0
pl              A                  1500.0000      0.0000    255.0000    400.7740      1.0000      1.0325      0.9500      1.0000      0.3000      0.9000      0.2000           0
pl              A                  1500.0000      0.0000    255.0000    400.7740      1.0000      0.4708      0.9500      1.0000      0.9500      0.9000      0.0100           0
pl              A                  1500.0000      0.0000    255.0000    400.7740      1.0000      0.7198      0.9500      1.0000      0.3000      0.9000      0.2000           0
pl              A                  1500.0000      0.0000    255.0000    400.7740      1.0000      0.2810      0.9500      1.0000      0.9500      0.9000      0.0100           0
pl              A                  1500.0000      0.0000    255.0000    400.7740      1.0000      1.0971      0.9500      1.0000      0.3000      0.9000      0.2000           0
pgl__gl         B                  1500.0000      0.0000    192.5000    467.1182      1.0000      0.3034      0.9500      1.0000      0.9500      0.9000      0.0100           0
pl              A                  1500.0000      0.0000    255.0000    400.7740      1.0000      0.2688      0.9500      1.0000      0.9500      0.9000      0.0100           0
pl              A                  1500.0000      0.0000    255.0000    400.7740      1.0000      0.2785      0.9500      1.0000      0.9500      0.9000      0.0100           0
pl              A                  1500.0000      0.0000    255.0000    400.7740      1.0000      0.1338      0.9500      1.0000      0.9500      0.9000      0.0100           0
pl              A                  1500.0000      0.0000    255.0000    400.7740      1.0000      0.3535      0.9500      1.0000      0.9500      0.9000      0.0100           0
pl              A                  1500.0000      0.0000    255.0000    400.7740      1.0000      0.3187      0.9500      1.0000      0.9500      0.9000      0.0100           0
pl              A                  1500.0000      0.0000    255.0000    400.7740      1.0000      0.4953      0.9500      1.0000      0.9500      0.9000      0.0100           0
pgl__pl         B                  1500.0000      0.0000    147.5000    519.6476      1.0000      0.2331      0.9500      1.0000      0.9500      0.9000      0.0100           0
ps_pl           A                  1500.0000      0.0000    200.0000    586.1741      1.0000      0.5207      0.9500      1.0000      0.9500      0.9000      0.0100           0
ps__pl          A                  1500.0000      0.0000    197.5000    581.6910      1.0000      0.2456      0.9500      1.0000      0.9500      0.9000      0.0100           0
pl              A                  1500.0000      0.0000    255.0000    400.7740      1.0000      0.2296      0.9500      1.0000      0.9500      0.9000      0.0100           0
ps__pl          A                  1500.0000      0.0000    197.5000    581.6910      1.0000      0.3325      0.9500      1.0000      0.9500      0.9000      0.0100           0
ps__pl          A                  1500.0000      0.0000    197.5000    581.6910      1.0000      0.2067      0.9500      1.0000      0.9500      0.9000      0.0100           0
ps__pl          A                  1500.0000      0.0000    197.5000    581.6910      1.0000      0.1875      0.9500      1.0000      0.9500      0.9000      0.0100           0
M_pl            A                  1500.0000      0.0000    282.5000    494.1850      1.0000      0.1468      0.9500      1.0000      0.9500      0.9000      0.0100           0
M_pl            A                  1500.0000      0.0000    282.5000    494.1850      1.0000      0.1285      0.9500      1.0000      0.9500      0.9000      0.0100           0
ps__pl          A                  1500.0000      0.0000    197.5000    581.6910      1.0000      0.4491      0.9500      1.0000      0.9500      0.9000      0.0100           0
ps__pl          A                  1500.0000      0.0000    197.5000    581.6910      1.0000      0.1926      0.9500      1.0000      0.9500      0.9000      0.0100           0
ps              B                  1500.0000      0.0000    155.0000    561.2406      1.0000      0.2463      0.9500      1.0000      0.9500      0.9000      0.0100           0
ps__pl          A                  1500.0000      0.0000    197.5000    581.6910      1.0000      0.4902      0.9500      1.0000      0.9500      0.9000      0.0100           0
ps              B                  1500.0000      0.0000    155.0000    561.2406      1.0000      0.9621      0.9500      1.0000      0.0000      0.5000      0.9000           0
pgl__gl         B                  1500.0000      0.0000    192.5000    467.1182      1.0000      0.8033      0.9500      1.0000      0.0000      0.5000      0.9000           0
ps_pl           A                  1500.0000      0.0000    200.0000    586.1741      1.0000      0.6226      0.9500      1.0000      0.9500      0.9000      0.0100           0
pgm__gl         C                  1500.0000      0.0000    167.5000    507.5816      1.0000      0.5153      0.9500      1.0000      0.3000      0.5000      0.2000           0
ps__pl          A                  1500.0000      0.0000    197.5000    581.6910      1.0000      0.3142      0.9500      1.0000      0.9500      0.9000      0.0100           0
pgl             B                  1500.0000      0.0000    195.0000    511.9387      1.0000      0.2773      0.9500      1.0000      0.9500      0.9000      0.0100           0
ps__pl          A                  1500.0000      0.0000    197.5000    581.6910      1.0000      0.4233      0.9500      1.0000      0.9500      0.9000      0.0100           0
ps__pl          A                  1500.0000      0.0000    197.5000    581.6910      1.0000      0.1176      0.9500      1.0000      0.9500      0.9000      0.0100           0
pgl__gl         B                  1500.0000      0.0000    192.5000    467.1182      1.0000      0.2218      0.9500      1.0000      0.9500      0.9000      0.0100           0
ps__pl          A                  1500.0000      0.0000    197.5000    581.6910      1.0000      0.2553      0.9500      1.0000      0.9500      0.9000      0.0100           0
ps__pl          A                  1500.0000      0.0000    197.5000    581.6910      1.0000      0.4910      0.9500      1.0000      0.9500      0.9000      0.0100           0
pgm__gl         C                  1500.0000      0.0000    167.5000    507.5816      1.0000      0.3303      0.9500      1.0000      0.3000      0.5000      0.2000           0
ps__pl          A                  1500.0000      0.0000    197.5000    581.6910      1.0000      0.2173      0.9500      1.0000      0.9500      0.9000      0.0100           0
pgl__gl         B                  1500.0000      0.0000    192.5000    467.1182      1.0000      0.1824      0.9500      1.0000      0.9500      0.9000      0.0100           0
pgl__gl         B                  1500.0000      0.0000    192.5000    467.1182      1.0000      0.4857      0.9500      1.0000      0.3000      0.9000      0.2000           0
pgl__gl         B                  1500.0000      0.0000    192.5000    467.1182      1.0000      0.2473      0.9500      1.0000      0.9500      0.9000      0.0100           0
pgm__gl         C                  1500.0000      0.0000    167.5000    507.5816      1.0000      0.1875      0.9500      1.0000      0.9500      0.5000      0.0100           0
pgl__pl         B                  1500.0000      0.0000    147.5000    519.6476      1.0000      0.2395      0.9500      1.0000      0.9500      0.9000      0.0100           0
gl              C                  1500.0000      0.0000    185.0000    498.4290      1.0000      0.2352      0.9500      1.0000      0.3000      0.5000      0.2000           0
M_pl            A                  1500.0000      0.0000    282.5000    494.1850      1.0000      0.1017      0.9500      1.0000      0.9500      0.9000      0.0100           0
pl              A                  1500.0000      0.0000    255.0000    400.7740      1.0000      0.2625      0.9500      1.0000      0.9500      0.9000      0.0100           0
pl              A                  1500.0000      0.0000    255.0000    400.7740      1.0000      0.7588      0.9500      1.0000      0.3000      0.9000      0.2000           0
pl              A                  1500.0000      0.0000    255.0000    400.7740      1.0000      0.1280      0.9500      1.0000      0.9500      0.9000      0.0100           0
pl              A                  1500.0000      0.0000    255.0000    400.7740      1.0000      0.1379      0.9500      1.0000      0.9500      0.9000      0.0100           0
pl              A                  1500.0000      0.0000    255.0000    400.7740      1.0000      0.1371      0.9500      1.0000      0.9500      0.9000      0.0100           0
pl              A                  1500.0000      0.0000    255.0000    400.7740      1.0000      0.1117      0.9500      1.0000      0.9500      0.9000      0.0100           0
pgm__gl         C                  1500.0000      0.0000    167.5000    507.5816      1.0000      0.7755      0.9500      1.0000      0.0000      0.5000      0.9000           0
pl              A                  1500.0000      0.0000    255.0000    400.7740      1.0000      0.5633      0.9500      1.0000      0.9500      0.9000      0.0100           0
pgm__gl         C                  1500.0000      0.0000    167.5000    507.5816      1.0000      0.4281      0.9500      1.0000      0.3000      0.5000      0.2000           0
pgm__gl         C                  1500.0000      0.0000    167.5000    507.5816      1.0000      0.7102      0.9500      1.0000      0.0000      0.5000      0.9000           0
pgm__gl         C                  1500.0000      0.0000    167.5000    507.5816      1.0000      0.2702      0.9500      1.0000      0.3000      0.5000      0.2000           0
pgl__gl         B                  1500.0000      0.0000    192.5000    467.1182      1.0000      2.3732      0.9500      1.0000      0.0000      0.5000      0.9000           0
pgl__pl         B                  1500.0000      0.0000    147.5000    519.6476      1.0000      0.2011      0.9500      1.0000      0.9500      0.9000      0.0100           0
pgl__pl         B                  1500.0000      0.0000    147.5000    519.6476      1.0000      0.3056      0.9500      1.0000      0.9500      0.9000      0.0100           0
pgl__gl         B                  1500.0000      0.0000    192.5000    467.1182      1.0000      0.1994      0.9500      1.0000      0.9500      0.9000      0.0100           0
pl              A                  1500.0000      0.0000    255.0000    400.7740      1.0000      1.0857      0.9500      1.0000      0.3000      0.9000      0.2000           0
pl              A                  1500.0000      0.0000    255.0000    400.7740      1.0000      0.9295      0.9500      1.0000      0.3000      0.9000      0.2000           0
pl              A                  1500.0000      0.0000    255.0000    400.7740      1.0000      1.4449      0.9500      1.0000      0.3000      0.9000      0.2000           0
ps_pl           A                  1500.0000      0.0000    200.0000    586.1741      1.0000      0.7485      0.9500      1.0000      0.3000      0.9000      0.2000           0
pl              A                  1500.0000      0.0000    255.0000    400.7740      1.0000      0.3953      0.9500      1.0000      0.9500      0.9000      0.0100           0
pl              A                  1500.0000      0.0000    255.0000    400.7740      1.0000      0.2585      0.9500      1.0000      0.9500      0.9000      0.0100           0
pl              A                  1500.0000      0.0000    255.0000    400.7740      1.0000      0.1899      0.9500      1.0000      0.9500      0.9000      0.0100           0
pl              A                  1500.0000      0.0000    255.0000    400.7740      1.0000      0.1633      0.9500      1.0000      0.9500      0.9000      0.0100           0
pl              A                  1500.0000      0.0000    255.0000    400.7740      1.0000      0.2890      0.9500      1.0000      0.9500      0.9000      0.0100           0
pgm__gl         C                  1500.0000      0.0000    167.5000    507.5816      1.0000      0.1695      0.9500      1.0000      0.9500      0.5000      0.0100           0
pgm_gl          C                  1500.0000      0.0000    175.0000    502.7844      1.0000      0.2697      0.9500      1.0000      0.3000      0.5000      0.2000           0
pgm__gl         C                  1500.0000      0.0000    167.5000    507.5816      1.0000      0.2829      0.9500      1.0000      0.3000      0.5000      0.2000           0
pgl__pl         B                  1500.0000      0.0000    147.5000    519.6476      1.0000      0.1534      0.9500      1.0000      0.9500      0.9000      0.0100           0
ps__pl          A                  1500.0000      0.0000    197.5000    581.6910      1.0000      0.2809      0.9500      1.0000      0.9500      0.9000      0.0100           0
ps__pl          A                  1500.0000      0.0000    197.5000    581.6910      1.0000      0.2314      0.9500      1.0000      0.9500      0.9000      0.0100           0
ps__pl          A                  1500.0000      0.0000    197.5000    581.6910      1.0000      0.1778      0.9500      1.0000      0.9500      0.9000      0.0100           0
ps__pl          A                  1500.0000      0.0000    197.5000    581.6910      1.0000      0.5065      0.9500      1.0000      0.9500      0.9000      0.0100           0
ps__pl          A                  1500.0000      0.0000    197.5000    581.6910      1.0000      0.1833      0.9500      1.0000      0.9500      0.9000      0.0100           0
ps__pl          A                  1500.0000      0.0000    197.5000    581.6910      1.0000      0.1908      0.9500      1.0000      0.9500      0.9000      0.0100           0
ps__pl          A                  1500.0000      0.0000    197.5000    581.6910      1.0000      0.1543      0.9500      1.0000      0.9500      0.9000      0.0100           0
ps__pl          A                  1500.0000      0.0000    197.5000    581.6910      1.0000      0.1618      0.9500      1.0000      0.9500      0.9000      0.0100           0
ps__pl          A                  1500.0000      0.0000    197.5000    581.6910      1.0000      0.2137      0.9500      1.0000      0.9500      0.9000      0.0100           0
pgl__gl         B                  1500.0000      0.0000    192.5000    467.1182      1.0000      0.2651      0.9500      1.0000      0.9500      0.9000      0.0100           0
pl              A                  1500.0000      0.0000    255.0000    400.7740      1.0000      0.1352      0.9500      1.0000      0.9500      0.9000      0.0100           0
M_pl            A                  1500.0000      0.0000    282.5000    494.1850      1.0000      0.1767      0.9500      1.0000      0.9500      0.9000      0.0100           0
ps__pl          A                  1500.0000      0.0000    197.5000    581.6910      1.0000      0.2090      0.9500      1.0000      0.9500      0.9000      0.0100           0
ps__pl          A                  1500.0000      0.0000    197.5000    581.6910      1.0000      0.2257      0.9500      1.0000      0.9500      0.9000      0.0100           0
M_pl            A                  1500.0000      0.0000    282.5000    494.1850      1.0000      0.1271      0.9500      1.0000      0.9500      0.9000      0.0100           0
pgl__gl         B                  1500.0000      0.0000    192.5000    467.1182      1.0000      0.3957      0.9500      1.0000      0.9500      0.9000      0.0100           0
ps__pl          A                  1500.0000      0.0000    197.5000    581.6910      1.0000      0.2019      0.9500      1.0000      0.9500      0.9000      0.0100           0
M_pl            A                  1500.0000      0.0000    282.5000    494.1850      1.0000      0.1409      0.9500      1.0000      0.9500      0.9000      0.0100           0
pgl__gl         B                  1500.0000      0.0000    192.5000    467.1182      1.0000      0.6828      0.9500      1.0000      0.0000      0.5000      0.9000           0
M_pl            A                  1500.0000      0.0000    282.5000    494.1850      1.0000      0.2970      0.9500      1.0000      0.9500      0.9000      0.0100           0
M_pl            A                  1500.0000      0.0000    282.5000    494.1850      1.0000      0.5076      0.9500      1.0000      0.9500      0.9000      0.0100           0
pgl__gl         B                  1500.0000      0.0000    192.5000    467.1182      1.0000      0.9465      0.9500      1.0000      0.0000      0.5000      0.9000           0
pgl__gl         B                  1500.0000      0.0000    192.5000    467.1182      1.0000      0.5267      0.9500      1.0000      0.3000      0.9000      0.2000           0
pgl__gl         B                  1500.0000      0.0000    192.5000    467.1182      1.0000      0.3360      0.9500      1.0000      0.9500      0.9000      0.0100           0
ps__pl          A                  1500.0000      0.0000    197.5000    581.6910      1.0000      0.3901      0.9500      1.0000      0.9500      0.9000      0.0100           0
pgl__gl         B                  1500.0000      0.0000    192.5000    467.1182      1.0000      0.1571      0.9500      1.0000      0.9500      0.9000      0.0100           0
ps__pl          A                  1500.0000      0.0000    197.5000    581.6910      1.0000      0.2302      0.9500      1.0000      0.9500      0.9000      0.0100           0
pgl__gl         B                  1500.0000      0.0000    192.5000    467.1182      1.0000      0.1359      0.9500      1.0000      0.9500      0.9000      0.0100           0
ps__pl          A                  1500.0000      0.0000    197.5000    581.6910      1.0000      0.1799      0.9500      1.0000      0.9500      0.9000      0.0100           0
pgm__gl         C                  1500.0000      0.0000    167.5000    507.5816      1.0000      0.5726      0.9500      1.0000      0.3000      0.5000      0.2000           0
pgm__gl         C                  1500.0000      0.0000    167.5000    507.5816      1.0000      0.1435      0.9500      1.0000      0.9500      0.5000      0.0100           0
pgl__gl         B                  1500.0000      0.0000    192.5000    467.1182      1.0000      0.3958      0.9500      1.0000      0.9500      0.9000      0.0100           0
pgl__pl         B                  1500.0000      0.0000    147.5000    519.6476      1.0000      0.1401      0.9500      1.0000      0.9500      0.9000      0.0100           0
pgl__pl         B                  1500.0000      0.0000    147.5000    519.6476      1.0000      0.1771      0.9500      1.0000      0.9500      0.9000      0.0100           0
pgl__pl         B                  1500.0000      0.0000    147.5000    519.6476      1.0000      0.2006      0.9500      1.0000      0.9500      0.9000      0.0100           0
pgm__gl         C                  1500.0000      0.0000    167.5000    507.5816      1.0000      0.1369      0.9500      1.0000      0.9500      0.5000      0.0100           0
ps__pl          A                  1500.0000      0.0000    197.5000    581.6910      1.0000      0.3374      0.9500      1.0000      0.9500      0.9000      0.0100           0
ps__pl          A                  1500.0000      0.0000    197.5000    581.6910      1.0000      0.3272      0.9500      1.0000      0.9500      0.9000      0.0100           0
pgl__gl         B                  1500.0000      0.0000    192.5000    467.1182      1.0000      0.2309      0.9500      1.0000      0.9500      0.9000      0.0100           0
ps__pl          A                  1500.0000      0.0000    197.5000    581.6910      1.0000      0.2588      0.9500      1.0000      0.9500      0.9000      0.0100           0
ps__pl          A                  1500.0000      0.0000    197.5000    581.6910      1.0000      0.3004      0.9500      1.0000      0.9500      0.9000      0.0100           0
ps__pl          A                  1500.0000      0.0000    197.5000    581.6910      1.0000      0.2902      0.9500      1.0000      0.9500      0.9000      0.0100           0
pgm__gl         C                  1500.0000      0.0000    167.5000    507.5816      1.0000      0.5970      0.9500      1.0000      0.3000      0.5000      0.2000           0
M_pl            A                  1500.0000      0.0000    282.5000    494.1850      1.0000      0.1020      0.9500      1.0000      0.9500      0.9000      0.0100           0
pgl__gl         B                  1500.0000      0.0000    192.5000    467.1182      1.0000      0.2470      0.9500      1.0000      0.9500      0.9000      0.0100           0
pgl__pl         B                  1500.0000      0.0000    147.5000    519.6476      1.0000      0.2376      0.9500      1.0000      0.9500      0.9000      0.0100           0
ps__pl          A                  1500.0000      0.0000    197.5000    581.6910      1.0000      0.1249      0.9500      1.0000      0.9500      0.9000      0.0100           0
pgl__pl         B                  1500.0000      0.0000    147.5000    519.6476      1.0000      0.1895      0.9500      1.0000      0.9500      0.9000      0.0100           0
pgm__gl         C                  1500.0000      0.0000    167.5000    507.5816      1.0000      0.2163      0.9500      1.0000      0.3000      0.5000      0.2000           0
ps__pl          A                  1500.0000      0.0000    197.5000    581.6910      1.0000      0.2369      0.9500      1.0000      0.9500      0.9000      0.0100           0
pgm__gl         C                  1500.0000      0.0000    167.5000    507.5816      1.0000      0.2201      0.9500      1.0000      0.3000      0.5000      0.2000           0
pgl__gl         B                  1500.0000      0.0000    192.5000    467.1182      1.0000      1.0303      0.9500      1.0000      0.0000      0.5000      0.9000           0
pgm__gl         C                  1500.0000      0.0000    167.5000    507.5816      1.0000      0.1663      0.9500      1.0000      0.9500      0.5000      0.0100           0
pgl             B                  1500.0000      0.0000    195.0000    511.9387      1.0000      0.1586      0.9500      1.0000      0.9500      0.9000      0.0100           0
pgl__gl         B                  1500.0000      0.0000    192.5000    467.1182      1.0000      0.2133      0.9500      1.0000      0.9500      0.9000      0.0100           0
pgm__gl         C                  1500.0000      0.0000    167.5000    507.5816      1.0000      0.1534      0.9500      1.0000      0.9500      0.5000      0.0100           0
ps__pl          A                  1500.0000      0.0000    197.5000    581.6910      1.0000      0.1800      0.9500      1.0000      0.9500      0.9000      0.0100           0
pgm__gl         C                  1500.0000      0.0000    167.5000    507.5816      1.0000      0.2114      0.9500      1.0000      0.3000      0.5000      0.2000           0
pgl__pl         B                  1500.0000      0.0000    147.5000    519.6476      1.0000      0.2226      0.9500      1.0000      0.9500      0.9000      0.0100           0
M_pl            A                  1500.0000      0.0000    282.5000    494.1850      1.0000      0.1406      0.9500      1.0000      0.9500      0.9000      0.0100           0
ps__pl          A                  1500.0000      0.0000    197.5000    581.6910      1.0000      0.3371      0.9500      1.0000      0.9500      0.9000      0.0100           0
pgm__gl         C                  1500.0000      0.0000    167.5000    507.5816      1.0000      0.1796      0.9500      1.0000      0.9500      0.5000      0.0100           0
pl              A                  1500.0000      0.0000    255.0000    400.7740      1.0000      0.1856      0.9500      1.0000      0.9500      0.9000      0.0100           0
ps__pl          A                  1500.0000      0.0000    197.5000    581.6910      1.0000      0.2006      0.9500      1.0000      0.9500      0.9000      0.0100           0
pgl             B                  1500.0000      0.0000    195.0000    511.9387      1.0000      0.1433      0.9500      1.0000      0.9500      0.9000      0.0100           0
ps__pl          A                  1500.0000      0.0000    197.5000    581.6910      1.0000      0.4348      0.9500      1.0000      0.9500      0.9000      0.0100           0
pgl             B                  1500.0000      0.0000    195.0000    511.9387      1.0000      0.2150      0.9500      1.0000      0.9500      0.9000      0.0100           0
pgl__gl         B                  1500.0000      0.0000    192.5000    467.1182      1.0000      0.1655      0.9500      1.0000      0.9500      0.9000      0.0100           0
pgl             B                  1500.0000      0.0000    195.0000    511.9387      1.0000      0.1274      0.9500      1.0000      0.9500      0.9000      0.0100           0
pgl__gl         B                  1500.0000      0.0000    192.5000    467.1182      1.0000      0.2738      0.9500      1.0000      0.9500      0.9000      0.0100           0
pgl__gl         B                  1500.0000      0.0000    192.5000    467.1182      1.0000      0.3500      0.9500      1.0000      0.9500      0.9000      0.0100           0
pgm__gl         C                  1500.0000      0.0000    167.5000    507.5816      1.0000      0.5290      0.9500      1.0000      0.3000      0.5000      0.2000           0
ps__pl          A                  1500.0000      0.0000    197.5000    581.6910      1.0000      0.2314      0.9500      1.0000      0.9500      0.9000      0.0100           0
ps              B                  1500.0000      0.0000    155.0000    561.2406      1.0000      0.2505      0.9500      1.0000      0.9500      0.9000      0.0100           0
pgl__gl         B                  1500.0000      0.0000    192.5000    467.1182      1.0000      0.3770      0.9500      1.0000      0.9500      0.9000      0.0100           0
pgl__gl         B                  1500.0000      0.0000    192.5000    467.1182      1.0000      0.2998      0.9500      1.0000      0.9500      0.9000      0.0100           0
pgm__gl         C                  1500.0000      0.0000    167.5000    507.5816      1.0000      0.1371      0.9500      1.0000      0.9500      0.5000      0.0100           0
pgm__gl         C                  1500.0000      0.0000    167.5000    507.5816      1.0000      0.1404      0.9500      1.0000      0.9500      0.5000      0.0100           0
pgm__gl         C                  1500.0000      0.0000    167.5000    507.5816      1.0000      0.2051      0.9500      1.0000      0.3000      0.5000      0.2000           0
ps__pl          A                  1500.0000      0.0000    197.5000    581.6910      1.0000      0.6615      0.9500      1.0000      0.9500      0.9000      0.0100           0
pgl__gl         B                  1500.0000      0.0000    192.5000    467.1182      1.0000      0.2243      0.9500      1.0000      0.9500      0.9000      0.0100           0
pgl__gl         B                  1500.0000      0.0000    192.5000    467.1182      1.0000      0.4581      0.9500      1.0000      0.3000      0.9000      0.2000           0
pgm__gl         C                  1500.0000      0.0000    167.5000    507.5816      1.0000      0.4844      0.9500      1.0000      0.3000      0.5000      0.2000           0
ps__pl          A                  1500.0000      0.0000    197.5000    581.6910      1.0000      0.2429      0.9500      1.0000      0.9500      0.9000      0.0100           0
ps__pl          A                  1500.0000      0.0000    197.5000    581.6910      1.0000      0.2351      0.9500      1.0000      0.9500      0.9000      0.0100           0
pgl__gl         B                  1500.0000      0.0000    192.5000    467.1182      1.0000      0.4468      0.9500      1.0000      0.3000      0.9000      0.2000           0
ps__pl          A                  1500.0000      0.0000    197.5000    581.6910      1.0000      0.1729      0.9500      1.0000      0.9500      0.9000      0.0100           0
M_pl            A                  1500.0000      0.0000    282.5000    494.1850      1.0000      0.4768      0.9500      1.0000      0.9500      0.9000      0.0100           0
pgl__pl         B                  1500.0000      0.0000    147.5000    519.6476      1.0000      0.2546      0.9500      1.0000      0.9500      0.9000      0.0100           0
ps__pl          A                  1500.0000      0.0000    197.5000    581.6910      1.0000      0.1718      0.9500      1.0000      0.9500      0.9000      0.0100           0
ps__pl          A                  1500.0000      0.0000    197.5000    581.6910      1.0000      0.2337      0.9500      1.0000      0.9500      0.9000      0.0100           0
pgl             B                  1500.0000      0.0000    195.0000    511.9387      1.0000      0.1614      0.9500      1.0000      0.9500      0.9000      0.0100           0
pgl             B                  1500.0000      0.0000    195.0000    511.9387      1.0000      0.2046      0.9500      1.0000      0.9500      0.9000      0.0100           0
ps__pl          A                  1500.0000      0.0000    197.5000    581.6910      1.0000      0.3281      0.9500      1.0000      0.9500      0.9000      0.0100           0
ps__pl          A                  1500.0000      0.0000    197.5000    581.6910      1.0000      0.2946      0.9500      1.0000      0.9500      0.9000      0.0100           0
ps__pl          A                  1500.0000      0.0000    197.5000    581.6910      1.0000      0.2257      0.9500      1.0000      0.9500      0.9000      0.0100           0
pgl__pl         B                  1500.0000      0.0000    147.5000    519.6476      1.0000      0.1889      0.9500      1.0000      0.9500      0.9000      0.0100           0
pgl__pl         B                  1500.0000      0.0000    147.5000    519.6476      1.0000      0.2565      0.9500      1.0000      0.9500      0.9000      0.0100           0
pgl__pl         B                  1500.0000      0.0000    147.5000    519.6476      1.0000      0.2149      0.9500      1.0000      0.9500      0.9000      0.0100           0
ps__pl          A                  1500.0000      0.0000    197.5000    581.6910      1.0000      0.2667      0.9500      1.0000      0.9500      0.9000      0.0100           0
pgl             B                  1500.0000      0.0000    195.0000    511.9387      1.0000      0.2151      0.9500      1.0000      0.9500      0.9000      0.0100           0
pgl             B                  1500.0000      0.0000    195.0000    511.9387      1.0000      0.1475      0.9500      1.0000      0.9500      0.9000      0.0100           0
M_pl            A                  1500.0000      0.0000    282.5000    494.1850      1.0000      0.2005      0.9500      1.0000      0.9500      0.9000      0.0100           0
ps_pl           A                  1500.0000      0.0000    200.0000    586.1741      1.0000      0.2974      0.9500      1.0000      0.9500      0.9000      0.0100           0
pgl__pl         B                  1500.0000      0.0000    147.5000    519.6476      1.0000      0.1974      0.9500      1.0000      0.9500      0.9000      0.0100           0
ps__pl          A                  1500.0000      0.0000    197.5000    581.6910      1.0000      0.1944      0.9500      1.0000      0.9500      0.9000      0.0100           0
ps__pl          A                  1500.0000      0.0000    197.5000    581.6910      1.0000      0.1889      0.9500      1.0000      0.9500      0.9000      0.0100           0
pgm__gl         C                  1500.0000      0.0000    167.5000    507.5816      1.0000      0.7204      0.9500      1.0000      0.0000      0.5000      0.9000           0
pgl__gl         B                  1500.0000      0.0000    192.5000    467.1182      1.0000      0.3197      0.9500      1.0000      0.9500      0.9000      0.0100           0
pgm__gl         C                  1500.0000      0.0000    167.5000    507.5816      1.0000      0.2218      0.9500      1.0000      0.3000      0.5000      0.2000           0
pgm__gl         C                  1500.0000      0.0000    167.5000    507.5816      1.0000      0.1552      0.9500      1.0000      0.9500      0.5000      0.0100           0
pgm__gl         C                  1500.0000      0.0000    167.5000    507.5816      1.0000      0.2055      0.9500      1.0000      0.3000      0.5000      0.2000           0
pgm__gl         C                  1500.0000      0.0000    167.5000    507.5816      1.0000      0.3507      0.9500      1.0000      0.3000      0.5000      0.2000           0
pgl__gl         B                  1500.0000      0.0000    192.5000    467.1182      1.0000      0.5525      0.9500      1.0000      0.3000      0.9000      0.2000           0
pgm__gl         C                  1500.0000      0.0000    167.5000    507.5816      1.0000      0.5251      0.9500      1.0000      0.3000      0.5000      0.2000           0
pgm__gl         C                  1500.0000      0.0000    167.5000    507.5816      1.0000      0.6334      0.9500      1.0000      0.3000      0.5000      0.2000           0
pgl__gl         B                  1500.0000      0.0000    192.5000    467.1182      1.0000      0.1561      0.9500      1.0000      0.9500      0.9000      0.0100           0
pgl__gl         B                  1500.0000      0.0000    192.5000    467.1182      1.0000      0.4859      0.9500      1.0000      0.3000      0.9000      0.2000           0
pgm__gl         C                  1500.0000      0.0000    167.5000    507.5816      1.0000      0.1737      0.9500      1.0000      0.9500      0.5000      0.0100           0
pgm__gl         C                  1500.0000      0.0000    167.5000    507.5816      1.0000      0.4574      0.9500      1.0000      0.3000      0.5000      0.2000           0
M_pl            A                  1500.0000      0.0000    282.5000    494.1850      1.0000      0.3805      0.9500      1.0000      0.9500      0.9000      0.0100           0
ps__pl          A                  1500.0000      0.0000    197.5000    581.6910      1.0000      0.2704      0.9500      1.0000      0.9500      0.9000      0.0100           0
pgm__gl         C                  1500.0000      0.0000    167.5000    507.5816      1.0000      0.1812      0.9500      1.0000      0.9500      0.5000      0.0100           0
pgm__gl         C                  1500.0000      0.0000    167.5000    507.5816      1.0000      0.1667      0.9500      1.0000      0.9500      0.5000      0.0100           0
ps__pl          A                  1500.0000      0.0000    197.5000    581.6910      1.0000      0.4859      0.9500      1.0000      0.9500      0.9000      0.0100           0
pgl__gl         B                  1500.0000      0.0000    192.5000    467.1182      1.0000      0.7666      0.9500      1.0000      0.0000      0.5000      0.9000           0
ps__pl          A                  1500.0000      0.0000    197.5000    581.6910      1.0000      0.5753      0.9500      1.0000      0.9500      0.9000      0.0100           0
pgm__gl         C                  1500.0000      0.0000    167.5000    507.5816      1.0000      0.5934      0.9500      1.0000      0.3000      0.5000      0.2000           0
pgl__pl         B                  1500.0000      0.0000    147.5000    519.6476      1.0000      0.5592      0.9500      1.0000      0.3000      0.9000      0.2000           0
pgl__gl         B                  1500.0000      0.0000    192.5000    467.1182      1.0000      0.2445      0.9500      1.0000      0.9500      0.9000      0.0100           0
ps__pl          A                  1500.0000      0.0000    197.5000    581.6910      1.0000      0.2438      0.9500      1.0000      0.9500      0.9000      0.0100           0
pgl             B                  1500.0000      0.0000    195.0000    511.9387      1.0000      0.1862      0.9500      1.0000      0.9500      0.9000      0.0100           0
pgl__gl         B                  1500.0000      0.0000    192.5000    467.1182      1.0000      0.2294      0.9500      1.0000      0.9500      0.9000      0.0100           0
pgl__gl         B                  1500.0000      0.0000    192.5000    467.1182      1.0000      0.3024      0.9500      1.0000      0.9500      0.9000      0.0100           0
pgl__gl         B                  1500.0000      0.0000    192.5000    467.1182      1.0000      0.1569      0.9500      1.0000      0.9500      0.9000      0.0100           0
pgl__pl         B                  1500.0000      0.0000    147.5000    519.6476      1.0000      0.1963      0.9500      1.0000      0.9500      0.9000      0.0100           0
pgm__gl         C                  1500.0000      0.0000    167.5000    507.5816      1.0000      0.1603      0.9500      1.0000      0.9500      0.5000      0.0100           0
pgl__gl         B                  1500.0000      0.0000    192.5000    467.1182      1.0000      0.2053      0.9500      1.0000      0.9500      0.9000      0.0100           0
pgl__gl         B                  1500.0000      0.0000    192.5000    467.1182      1.0000      0.1790      0.9500      1.0000      0.9500      0.9000      0.0100           0
pgl__gl         B                  1500.0000      0.0000    192.5000    467.1182      1.0000      0.2707      0.9500      1.0000      0.9500      0.9000      0.0100           0
pgl__gl         B                  1500.0000      0.0000    192.5000    467.1182      1.0000      0.2881      0.9500      1.0000      0.9500      0.9000      0.0100           0
pgl__gl         B                  1500.0000      0.0000    192.5000    467.1182      1.0000      0.4389      0.9500      1.0000      0.3000      0.9000      0.2000           0
pgl__gl         B                  1500.0000      0.0000    192.5000    467.1182      1.0000      0.1523      0.9500      1.0000      0.9500      0.9000      0.0100           0
pgm__gl         C                  1500.0000      0.0000    167.5000    507.5816      1.0000      0.1499      0.9500      1.0000      0.9500      0.5000      0.0100           0
M_pl            A                  1500.0000      0.0000    282.5000    494.1850      1.0000      0.1401      0.9500      1.0000      0.9500      0.9000      0.0100           0
pgl__gl         B                  1500.0000      0.0000    192.5000    467.1182      1.0000      0.1942      0.9500      1.0000      0.9500      0.9000      0.0100           0
pgl__gl         B                  1500.0000      0.0000    192.5000    467.1182      1.0000      0.2152      0.9500      1.0000      0.9500      0.9000      0.0100           0
ps__pl          A                  1500.0000      0.0000    197.5000    581.6910      1.0000      0.3368      0.9500      1.0000      0.9500      0.9000      0.0100           0
pgl__pl         B                  1500.0000      0.0000    147.5000    519.6476      1.0000      0.3280      0.9500      1.0000      0.9500      0.9000      0.0100           0
pgm__gl         C                  1500.0000      0.0000    167.5000    507.5816      1.0000      0.5482      0.9500      1.0000      0.3000      0.5000      0.2000           0
pgl__pl         B                  1500.0000      0.0000    147.5000    519.6476      1.0000      0.3625      0.9500      1.0000      0.9500      0.9000      0.0100           0
pgl__gl         B                  1500.0000      0.0000    192.5000    467.1182      1.0000      0.3059      0.9500      1.0000      0.9500      0.9000      0.0100           0
ps__pl          A                  1500.0000      0.0000    197.5000    581.6910      1.0000      0.1992      0.9500      1.0000      0.9500      0.9000      0.0100           0
pgl__pl         B                  1500.0000      0.0000    147.5000    519.6476      1.0000      0.1743      0.9500      1.0000      0.9500      0.9000      0.0100           0
pgl__gl         B                  1500.0000      0.0000    192.5000    467.1182      1.0000      0.3040      0.9500      1.0000      0.9500      0.9000      0.0100           0
ps__pl          A                  1500.0000      0.0000    197.5000    581.6910      1.0000      0.2991      0.9500      1.0000      0.9500      0.9000      0.0100           0
ps__pl          A                  1500.0000      0.0000    197.5000    581.6910      1.0000      0.2623      0.9500      1.0000      0.9500      0.9000      0.0100           0
ps__pl          A                  1500.0000      0.0000    197.5000    581.6910      1.0000      0.4111      0.9500      1.0000      0.9500      0.9000      0.0100           0
pgm__gl         C                  1500.0000      0.0000    167.5000    507.5816      1.0000      0.5735      0.9500      1.0000      0.3000      0.5000      0.2000           0
pgm__gl         C                  1500.0000      0.0000    167.5000    507.5816      1.0000      0.4200      0.9500      1.0000      0.3000      0.5000      0.2000           0
ps__pl          A                  1500.0000      0.0000    197.5000    581.6910      1.0000      0.3475      0.9500      1.0000      0.9500      0.9000      0.0100           0
pgm__gl         C                  1500.0000      0.0000    167.5000    507.5816      1.0000      0.3017      0.9500      1.0000      0.3000      0.5000      0.2000           0
pgl__pl         B                  1500.0000      0.0000    147.5000    519.6476      1.0000      0.2161      0.9500      1.0000      0.9500      0.9000      0.0100           0
pl              A                  1500.0000      0.0000    255.0000    400.7740      1.0000      1.4156      0.9500      1.0000      0.3000      0.9000      0.2000           0
pl              A                  1500.0000      0.0000    255.0000    400.7740      1.0000      0.3379      0.9500      1.0000      0.9500      0.9000      0.0100           0
pl              A                  1500.0000      0.0000    255.0000    400.7740      1.0000      0.1775      0.9500      1.0000      0.9500      0.9000      0.0100           0
pgl__pl         B                  1500.0000      0.0000    147.5000    519.6476      1.0000      0.1694      0.9500      1.0000      0.9500      0.9000      0.0100           0
pl              A                  1500.0000      0.0000    255.0000    400.7740      1.0000      0.2180      0.9500      1.0000      0.9500      0.9000      0.0100           0
pl              A                  1500.0000      0.0000    255.0000    400.7740      1.0000      0.5064      0.9500      1.0000      0.9500      0.9000      0.0100           0
pgl__gl         B                  1500.0000      0.0000    192.5000    467.1182      1.0000      0.4160      0.9500      1.0000      0.3000      0.9000      0.2000           0
pgm__gl         C                  1500.0000      0.0000    167.5000    507.5816      1.0000      0.4997      0.9500      1.0000      0.3000      0.5000      0.2000           0
pgm__gl         C                  1500.0000      0.0000    167.5000    507.5816      1.0000      0.1667      0.9500      1.0000      0.9500      0.5000      0.0100           0
pgm__gl         C                  1500.0000      0.0000    167.5000    507.5816      1.0000      0.1559      0.9500      1.0000      0.9500      0.5000      0.0100           0
pgm__gl         C                  1500.0000      0.0000    167.5000    507.5816      1.0000      0.2424      0.9500      1.0000      0.3000      0.5000      0.2000           0
pl              A                  1500.0000      0.0000    255.0000    400.7740      1.0000      0.4193      0.9500      1.0000      0.9500      0.9000      0.0100           0
pl              A                  1500.0000      0.0000    255.0000    400.7740      1.0000      0.1609      0.9500      1.0000      0.9500      0.9000      0.0100           0
pl              A                  1500.0000      0.0000    255.0000    400.7740      1.0000      0.3336      0.9500      1.0000      0.9500      0.9000      0.0100           0
pl              A                  1500.0000      0.0000    255.0000    400.7740      1.0000      0.4722      0.9500      1.0000      0.9500      0.9000      0.0100           0
pl              A                  1500.0000      0.0000    255.0000    400.7740      1.0000      0.2586      0.9500      1.0000      0.9500      0.9000      0.0100           0
pgm__gl         C                  1500.0000      0.0000    167.5000    507.5816      1.0000      0.4772      0.9500      1.0000      0.3000      0.5000      0.2000           0
pl              A                  1500.0000      0.0000    255.0000    400.7740      1.0000      0.3448      0.9500      1.0000      0.9500      0.9000      0.0100           0
pl              A                  1500.0000      0.0000    255.0000    400.7740      1.0000      0.2408      0.9500      1.0000      0.9500      0.9000      0.0100           0
pgm__gl         C                  1500.0000      0.0000    167.5000    507.5816      1.0000      0.4573      0.9500      1.0000      0.3000      0.5000      0.2000           0
pgm__gl         C                  1500.0000      0.0000    167.5000    507.5816      1.0000      0.4156      0.9500      1.0000      0.3000      0.5000      0.2000           0
pgm__gl         C                  1500.0000      0.0000    167.5000    507.5816      1.0000      0.6291      0.9500      1.0000      0.3000      0.5000      0.2000           0
pl              A                  1500.0000      0.0000    255.0000    400.7740      1.0000      0.4168      0.9500      1.0000      0.9500      0.9000      0.0100           0
pgm__gl         C                  1500.0000      0.0000    167.5000    507.5816      1.0000      0.6548      0.9500      1.0000      0.3000      0.5000      0.2000           0
pl              A                  1500.0000      0.0000    255.0000    400.7740      1.0000      0.1677      0.9500      1.0000      0.9500      0.9000      0.0100           0
pl              A                  1500.0000      0.0000    255.0000    400.7740      1.0000      1.0077      0.9500      1.0000      0.3000      0.9000      0.2000           0
pl              A                  1500.0000      0.0000    255.0000    400.7740      1.0000      0.5231      0.9500      1.0000      0.9500      0.9000      0.0100           0
pl              A                  1500.0000      0.0000    255.0000    400.7740      1.0000      0.2829      0.9500      1.0000      0.9500      0.9000      0.0100           0
pl              A                  1500.0000      0.0000    255.0000    400.7740      1.0000      0.4615      0.9500      1.0000      0.9500      0.9000      0.0100           0
pl              A                  1500.0000      0.0000    255.0000    400.7740      1.0000      0.5332      0.9500      1.0000      0.9500      0.9000      0.0100           0
pl              A                  1500.0000      0.0000    255.0000    400.7740      1.0000      0.9783      0.9500      1.0000      0.3000      0.9000      0.2000           0
ps              B                  1500.0000      0.0000    155.0000    561.2406      1.0000      0.3051      0.9500      1.0000      0.9500      0.9000      0.0100           0
ps              B                  1500.0000      0.0000    155.0000    561.2406      1.0000      0.4224      0.9500      1.0000      0.3000      0.9000      0.2000           0
ps              B                  1500.0000      0.0000    155.0000    561.2406      1.0000      0.2804      0.9500      1.0000      0.9500      0.9000      0.0100           0
pgm_gl          C                  1500.0000      0.0000    175.0000    502.7844      1.0000      0.3459      0.9500      1.0000      0.3000      0.5000      0.2000           0
pgm__gl         C                  1500.0000      0.0000    167.5000    507.5816      1.0000      0.2371      0.9500      1.0000      0.3000      0.5000      0.2000           0
pgm__gl         C                  1500.0000      0.0000    167.5000    507.5816      1.0000      0.2439      0.9500      1.0000      0.3000      0.5000      0.2000           0
pgm__gl         C                  1500.0000      0.0000    167.5000    507.5816      1.0000      0.2638      0.9500      1.0000      0.3000      0.5000      0.2000           0
pl              A                  1500.0000      0.0000    255.0000    400.7740      1.0000      0.3493      0.9500      1.0000      0.9500      0.1000      0.0100           1
ps              B                  1500.0000      0.0000    155.0000    561.2406      1.0000      0.2224      0.9500      1.0000      0.9500      0.1000      0.0100           1
ps              B                  1500.0000      0.0000    155.0000    561.2406      1.0000      0.1918      0.9500      1.0000      0.9500      0.1000      0.0100           1
pl              A                  1500.0000      0.0000    255.0000    400.7740      1.0000      0.3215      0.9500      1.0000      0.9500      0.1000      0.0100           1
M_pl            A                  1500.0000      0.0000    282.5000    494.1850      1.0000      0.3898      0.9500      1.0000      0.9500      0.1000      0.0100           1
gl              C                  1500.0000      0.0000    185.0000    498.4290      1.0000      0.3652      0.9500      1.0000      0.9500      0.1000      0.0100           1
ps              B                  1500.0000      0.0000    155.0000    561.2406      1.0000      0.1455      0.9500      1.0000      0.9500      0.1000      0.0100           1
pgl__gl         B                  1500.0000      0.0000    192.5000    467.1182      1.0000      0.2953      0.9500      1.0000      0.9500      0.1000      0.0100           1
pgm__gl         C                  1500.0000      0.0000    167.5000    507.5816      1.0000      0.3040      0.9500      1.0000      0.9500      0.1000      0.0100           1
gl              C                  1500.0000      0.0000    185.0000    498.4290      1.0000      0.5171      0.9500      1.0000      0.9500      0.1000      0.0100           1
pl              A                  1500.0000      0.0000    255.0000    400.7740      1.0000      0.2641      0.9500      1.0000      0.9500      0.1000      0.0100           1
pl              A                  1500.0000      0.0000    255.0000    400.7740      1.0000      0.1802      0.9500      1.0000      0.9500      0.1000      0.0100           1
ps__pl          A                  1500.0000      0.0000    197.5000    581.6910      1.0000      0.1456      0.9500      1.0000      0.9500      0.1000      0.0100           1
ps              B                  1500.0000      0.0000    155.0000    561.2406      1.0000      0.2375      0.9500      1.0000      0.9500      0.1000      0.0100           1
M_pl            A                  1500.0000      0.0000    282.5000    494.1850      1.0000      0.2567      0.9500      1.0000      0.9500      0.1000      0.0100           1
M_pl            A                  1500.0000      0.0000    282.5000    494.1850      1.0000      0.1876      0.9500      1.0000      0.9500      0.1000      0.0100           1
pgm__gl         C                  1500.0000      0.0000    167.5000    507.5816      1.0000      0.2465      0.9500      1.0000      0.9500      0.1000      0.0100           1
pgm__gl         C                  1500.0000      0.0000    167.5000    507.5816      1.0000      1.0483      0.9500      1.0000      0.9500      0.1000      0.0100           1
pl              A                  1500.0000      0.0000    255.0000    400.7740      1.0000      0.2077      0.9500      1.0000      0.9500      0.1000      0.0100           1
ps              B                  1500.0000      0.0000    155.0000    561.2406      1.0000      0.3277      0.9500      1.0000      0.9500      0.1000      0.0100           1
pl              A                  1500.0000      0.0000    255.0000    400.7740      1.0000      0.2084      0.9500      1.0000      0.9500      0.1000      0.0100           1
M_pl            A                  1500.0000      0.0000    282.5000    494.1850      1.0000      0.2585      0.9500      1.0000      0.9500      0.1000      0.0100           1
pl              A                  1500.0000      0.0000    255.0000    400.7740      1.0000      0.1679      0.9500      1.0000      0.9500      0.1000      0.0100           1
M_pl            A                  1500.0000      0.0000    282.5000    494.1850      1.0000      0.1709      0.9500      1.0000      0.9500      0.1000      0.0100           1
M_pl            A                  1500.0000      0.0000    282.5000    494.1850      1.0000      0.2270      0.9500      1.0000      0.9500      0.1000      0.0100           1
M_pl            A                  1500.0000      0.0000    282.5000    494.1850      1.0000      0.2580      0.9500      1.0000      0.9500      0.1000      0.0100           1
pl              A                  1500.0000      0.0000    255.0000    400.7740      1.0000      0.3957      0.9500      1.0000      0.9500      0.1000      0.0100           1
gl              C                  1500.0000      0.0000    185.0000    498.4290      1.0000      0.0961      0.9500      1.0000      0.9500      0.1000      0.0100           1
pl              A                  1500.0000      0.0000    255.0000    400.7740      1.0000      0.2147      0.9500      1.0000      0.9500      0.1000      0.0100           1
gl              C                  1500.0000      0.0000    185.0000    498.4290      1.0000      0.1784      0.9500      1.0000      0.9500      0.1000      0.0100           1
gl              C                  1500.0000      0.0000    185.0000    498.4290      1.0000      0.1778      0.9500      1.0000      0.9500      0.1000      0.0100           1
pl              A                  1500.0000      0.0000    255.0000    400.7740      1.0000      0.1853      0.9500      1.0000      0.9500      0.1000      0.0100           1
pgm_gl          C                  1500.0000      0.0000    175.0000    502.7844      1.0000      0.4099      0.9500      1.0000      0.9500      0.1000      0.0100           1
pl              A                  1500.0000      0.0000    255.0000    400.7740      1.0000      0.2690      0.9500      1.0000      0.9500      0.1000      0.0100           1
gl              C                  1500.0000      0.0000    185.0000    498.4290      1.0000      0.1736      0.9500      1.0000      0.9500      0.1000      0.0100           1
pl              A                  1500.0000      0.0000    255.0000    400.7740      1.0000      0.6289      0.9500      1.0000      0.9500      0.1000      0.0100           1
pgl__gl         B                  1500.0000      0.0000    192.5000    467.1182      1.0000      0.3164      0.9500      1.0000      0.9500      0.1000      0.0100           1
